data_created_by_vaspkit_code
_audit_creation_date          Wed Feb 15 23:42:30 2023
_pd_phase_name                     'CIF files'
_cell_length_a                     9.46169949
_cell_length_b                     9.46169949
_cell_length_c                    30.00106049
_cell_angle_alpha                     90.0355
_cell_angle_beta                      88.8727
_cell_angle_gamma                    120.0010
_symmetry_space_group_name_H-M           'P 1'
_symmetry_Int_Tables_number            1
loop_
_symmetry_equiv_pos_as_xyz
    'x, y, z'
loop_
   _atom_site_label
   _atom_site_occupancy
   _atom_site_fract_x
   _atom_site_fract_y
   _atom_site_fract_z
   _atom_site_thermal_displace_type
   _atom_site_U_iso_or_equiv
   _atom_site_type_symbol
   Nb001  1.0    0.097820    0.214208    0.369133  Uiso   1.00  Nb
   Nb002  1.0    0.097805    0.547534    0.369144  Uiso   1.00  Nb
   Nb003  1.0    0.097817    0.880879    0.369144  Uiso   1.00  Nb
   Nb004  1.0    0.431154    0.214218    0.369130  Uiso   1.00  Nb
   Nb005  1.0    0.431155    0.547541    0.369138  Uiso   1.00  Nb
   Nb006  1.0    0.431148    0.880881    0.369140  Uiso   1.00  Nb
   Nb007  1.0    0.764475    0.214211    0.369135  Uiso   1.00  Nb
   Nb008  1.0    0.764478    0.547540    0.369142  Uiso   1.00  Nb
   Nb009  1.0    0.764483    0.880875    0.369132  Uiso   1.00  Nb
   Nb010  1.0    0.202103    0.099864    0.452408  Uiso   1.00  Nb
   Nb011  1.0    0.202107    0.433185    0.452398  Uiso   1.00  Nb
   Nb012  1.0    0.202120    0.766537    0.452398  Uiso   1.00  Nb
   Nb013  1.0    0.535451    0.099856    0.452408  Uiso   1.00  Nb
   Nb014  1.0    0.535439    0.433192    0.452409  Uiso   1.00  Nb
   Nb015  1.0    0.535450    0.766532    0.452401  Uiso   1.00  Nb
   Nb016  1.0    0.868771    0.099850    0.452411  Uiso   1.00  Nb
   Nb017  1.0    0.868774    0.433185    0.452405  Uiso   1.00  Nb
   Nb018  1.0    0.868771    0.766532    0.452406  Uiso   1.00  Nb
    C001  1.0    0.316658    0.323621    0.410774  Uiso   1.00   C
    C002  1.0    0.316667    0.657003    0.410758  Uiso   1.00   C
    C003  1.0    0.316717    0.990566    0.410775  Uiso   1.00   C
    C004  1.0    0.649861    0.323647    0.410791  Uiso   1.00   C
    C005  1.0    0.649978    0.657020    0.410776  Uiso   1.00   C
    C006  1.0    0.650079    0.990407    0.410761  Uiso   1.00   C
    C007  1.0    0.983223    0.323523    0.410776  Uiso   1.00   C
    C008  1.0    0.983232    0.657016    0.410796  Uiso   1.00   C
    C009  1.0    0.983265    0.990421    0.410764  Uiso   1.00   C
    O001  1.0    0.211806    0.104490    0.334036  Uiso   1.00   O
    O002  1.0    0.211778    0.437771    0.334038  Uiso   1.00   O
    O003  1.0    0.211764    0.771129    0.334034  Uiso   1.00   O
    O004  1.0    0.545160    0.104501    0.334033  Uiso   1.00   O
    O005  1.0    0.545122    0.437788    0.334034  Uiso   1.00   O
    O006  1.0    0.545144    0.771144    0.334027  Uiso   1.00   O
    O007  1.0    0.878488    0.104511    0.334035  Uiso   1.00   O
    O008  1.0    0.878449    0.437782    0.334040  Uiso   1.00   O
    O009  1.0    0.878467    0.771141    0.334035  Uiso   1.00   O
    O010  1.0    0.088118    0.209583    0.487503  Uiso   1.00   O
    O011  1.0    0.088156    0.542934    0.487508  Uiso   1.00   O
    O012  1.0    0.088146    0.876301    0.487504  Uiso   1.00   O
    O013  1.0    0.421444    0.209576    0.487503  Uiso   1.00   O
    O014  1.0    0.421477    0.876302    0.487502  Uiso   1.00   O
    O015  1.0    0.754769    0.209566    0.487508  Uiso   1.00   O
    O016  1.0    0.754777    0.542935    0.487513  Uiso   1.00   O
    O017  1.0    0.754809    0.876304    0.487506  Uiso   1.00   O
   Pb001  1.0    0.606488    0.588117    0.571769  Uiso   1.00  Pb
